data/case118_mod.m
function [baseMVA, bus, gen, branch, area, gencost, load] = case118_2

baseMVA = 100.0; 

%bus type     Pd         Qd        Gs       Bs   area   Vm        Va       baseKV  zone   Vmax     Vmin
bus = [
   1  2      0.0000     0.0000    0.000    0.000   1   0.95500   17.984     0.0000  1    1.06000  0.94000
   2  1      0.0000     0.0000    0.000    0.000   1   0.97087   17.528     0.0000  1    1.06000  0.93000
   3  1      0.0000     0.0000    0.000    0.000   1   0.96708   19.458     0.0000  1    1.06000  0.94000
   4  2      0.0000     0.0000    0.000    0.000   1   0.99800   25.699     0.0000  1    1.06000  0.94000
   5  1      0.0000     0.0000    0.000    0.000   1   1.00381   26.633     0.0000  1    1.06000  0.94000
   6  2      0.0000     0.0000    0.000    0.000   1   0.99000   18.539     0.0000  1    1.06000  0.94000
   7  1      0.0000     0.0000    0.000    0.000   1   0.98754   17.569     0.0000  1    1.06000  0.94000
   8  2      0.0000     0.0000    0.000    0.000   1   1.01500   31.467     0.0000  1    1.06000  0.94000
   9  1      0.0000     0.0000    0.000    0.000   1   1.04879   35.617     0.0000  1    1.06000  0.94000
  10  2      0.0000     0.0000    0.000    0.000   1   1.05000   40.030     0.0000  1    1.06000  0.94000
  11  1      0.0000     0.0000    0.000    0.000   1   0.97918   18.782     0.0000  1    1.06000  0.94000
  12  2      0.0000     0.0000    0.000    0.000   1   0.99000   17.976     0.0000  1    1.06000  0.94000
  13  1      0.0000     0.0000    0.000    0.000   1   0.96209   17.376     0.0000  1    1.06000  0.89000
  14  1      0.0000     0.0000    0.000    0.000   1   0.98333   17.387     0.0000  1    1.06000  0.94000
  15  2      0.0000     0.0000    0.000    0.000   1   0.97000   17.613     0.0000  1    1.06000  0.94000
  16  1      0.0000     0.0000    0.000    0.000   1   0.97526   16.741     0.0000  1    1.06000  0.94000
  17  1      0.0000     0.0000    0.000    0.000   1   0.99501   21.022     0.0000  1    1.06000  0.94000
  18  2      0.0000     0.0000    0.000    0.000   1   0.97300   18.216     0.0000  1    1.06000  0.94000
  19  2      0.0000     0.0000    0.000    0.000   1   0.96200   17.356     0.0000  1    1.06000  0.94000
  20  1      0.0000     0.0000    0.000    0.000   1   0.95458   18.162     0.0000  1    1.06000  0.93000
  21  1      0.0000     0.0000    0.000    0.000   1   0.95431   19.799     0.0000  1    1.06000  0.91000
  22  1      0.0000     0.0000    0.000    0.000   1   0.96568   22.489     0.0000  1    1.06000  0.90000
  23  1      0.0000     0.0000    0.000    0.000   1   0.99810   27.701     0.0000  1    1.06000  0.94000
  24  2      0.0000     0.0000    0.000    0.000   1   0.99200   26.330     0.0000  1    1.06000  0.94000
  25  2      0.0000     0.0000    0.000    0.000   1   1.05000   36.637     0.0000  1    1.06000  0.94000
  26  2      0.0000     0.0000    0.000    0.000   1   1.01500   39.009     0.0000  1    1.06000  0.94000
  27  2      0.0000     0.0000    0.000    0.000   1   0.96800   22.034     0.0000  1    1.06000  0.94000
  28  1      0.0000     0.0000    0.000    0.000   1   0.94930   19.735     0.0000  1    1.06000  0.94000
  29  1      0.0000     0.0000    0.000    0.000   1   0.93893   18.186     0.0000  1    1.06000  0.93000
  30  1      0.0000     0.0000    0.000    0.000   1   0.98178   26.939     0.0000  1    1.06000  0.94000
  31  2      0.0000     0.0000    0.000    0.000   1   0.96700   19.915     0.0000  1    1.06000  0.94000
  32  2      0.0000     0.0000    0.000    0.000   1   0.96300   21.546     0.0000  1    1.06000  0.94000
  33  1      0.0000     0.0000    0.000    0.000   1   0.96947   16.124     0.0000  1    1.06000  0.94000
  34  2      0.0000     0.0000    0.000    0.000   1   0.98400   15.890     0.0000  1    1.06000  0.94000
  35  1      0.0000     0.0000    0.000    0.000   1   0.98023   15.401     0.0000  1    1.06000  0.94000
  36  2      0.0000     0.0000    0.000    0.000   1   0.98000   15.394     0.0000  1    1.06000  0.94000
  37  1      0.0000     0.0000    0.000    0.000   1   0.99021   16.443     0.0000  1    1.06000  0.94000
  38  1      0.0000     0.0000    0.000    0.000   1   0.95797   22.733     0.0000  1    1.06000  0.94000
  39  1      0.0000     0.0000    0.000    0.000   1   0.96815   11.582     0.0000  1    1.06000  0.94000
  40  2      0.0000     0.0000    0.000    0.000   1   0.97000    9.736     0.0000  1    1.06000  0.94000
  41  1      0.0000     0.0000    0.000    0.000   1   0.96609    8.772     0.0000  1    1.06000  0.94000
  42  2      0.0000     0.0000    0.000    0.000   1   0.98500    9.231     0.0000  1    1.06000  0.94000
  43  1      0.0000     0.0000    0.000    0.000   1   0.97590   14.048     0.0000  1    1.06000  0.93000
  44  1      0.0000     0.0000    0.000    0.000   1   0.98410   14.157     0.0000  1    1.06000  0.94000
  45  1      0.0000     0.0000    0.000    0.000   1   0.98590   15.211     0.0000  1    1.06000  0.94000
  46  2      0.0000     0.0000    0.000    0.000   1   1.00500   17.690     0.0000  1    1.06000  0.94000
  47  1      0.0000     0.0000    0.000    0.000   1   1.01631   19.789     0.0000  1    1.06000  0.94000
  48  1      0.0000     0.0000    0.000    0.000   1   1.02060   18.854     0.0000  1    1.06000  0.94000
  49  2      0.0000     0.0000    0.000    0.000   1   1.02500   19.844     0.0000  1    1.06000  0.94000
  50  1      0.0000     0.0000    0.000    0.000   1   0.99947   17.261     0.0000  1    1.06000  0.92000
  51  1      0.0000     0.0000    0.000    0.000   1   0.96304   13.921     0.0000  1    1.06000  0.91000
  52  1      0.0000     0.0000    0.000    0.000   1   0.95232   12.736     0.0000  1    1.06000  0.90000
  53  1      0.0000     0.0000    0.000    0.000   1   0.94269   11.305     0.0000  1    1.06000  0.90000
  54  2      0.0000     0.0000    0.000    0.000   1   0.95500   12.050     0.0000  1    1.06000  0.94000
  55  2      0.0000     0.0000    0.000    0.000   1   0.95200   11.790     0.0000  1    1.06000  0.94000
  56  2      0.0000     0.0000    0.000    0.000   1   0.95400   12.006     0.0000  1    1.06000  0.94000
  57  1      0.0000     0.0000    0.000    0.000   1   0.96899   13.823     0.0000  1    1.06000  0.93000
  58  1      0.0000     0.0000    0.000    0.000   1   0.95643   12.781     0.0000  1    1.06000  0.92000
  59  2      0.0000     0.0000    0.000    0.000   1   0.98500   16.764     0.0000  1    1.06000  0.94000
  60  1      0.0000     0.0000    0.000    0.000   1   0.99209   26.596     0.0000  1    1.06000  0.94000
  61  2      0.0000     0.0000    0.000    0.000   1   0.99500   27.980     0.0000  1    1.06000  0.94000
  62  2      0.0000     0.0000    0.000    0.000   1   0.99800   27.372     0.0000  1    1.06000  0.94000
  63  1      0.0000     0.0000    0.000    0.000   1   0.99692   30.083     0.0000  1    1.06000  0.94000
  64  1      0.0000     0.0000    0.000    0.000   1   0.99477   30.093     0.0000  1    1.06000  0.94000
  65  2      0.0000     0.0000    0.000    0.000   1   1.00500   32.458     0.0000  1    1.06000  0.94000
  66  2      0.0000     0.0000    0.000    0.000   1   1.05000   32.997     0.0000  1    1.06000  0.94000
  67  1      0.0000     0.0000    0.000    0.000   1   1.01836   29.567     0.0000  1    1.06000  0.94000
  68  1      0.0000     0.0000    0.000    0.000   1   1.00387   30.846     0.0000  1    1.06000  0.94000
  69  3      0.0000     0.0000    0.000    0.000   1   1.03500   30.000     0.0000  1    1.06000  0.94000
  70  2      0.0000     0.0000    0.000    0.000   1   0.98400   23.166     0.0000  1    1.06000  0.94000
  71  1      0.0000     0.0000    0.000    0.000   1   0.98811   23.114     0.0000  1    1.06000  0.94000
  72  2      0.0000     0.0000    0.000    0.000   1   0.98000   24.016     0.0000  1    1.06000  0.94000
  73  2      0.0000     0.0000    0.000    0.000   1   0.99100   22.991     0.0000  1    1.06000  0.94000
  74  2      0.0000     0.0000    0.000    0.000   1   0.95800   21.252     0.0000  1    1.06000  0.94000
  75  1      0.0000     0.0000    0.000    0.000   1   0.96637   22.420     0.0000  1    1.06000  0.94000
  76  2      0.0000     0.0000    0.000    0.000   1   0.94300   20.596     0.0000  1    1.06000  0.94000
  77  2      0.0000     0.0000    0.000    0.000   1   1.00600   25.437     0.0000  1    1.06000  0.94000
  78  1      0.0000     0.0000    0.000    0.000   1   1.00267   25.724     0.0000  1    1.06000  0.94000
  79  1      0.0000     0.0000    0.000    0.000   1   1.00689   27.246     0.0000  1    1.06000  0.94000
  80  2      0.0000     0.0000    0.000    0.000   1   1.04000   33.041     0.0000  1    1.06000  0.94000
  81  1      0.0000     0.0000    0.000    0.000   1   0.99737   31.697     0.0000  1    1.06000  0.94000
  82  1      0.0000     0.0000    0.000    0.000   1   0.96700   33.930     0.0000  1    1.06000  0.94000
  83  1      0.0000     0.0000    0.000    0.000   1   0.96789   35.622     0.0000  1    1.06000  0.94000
  84  1      0.0000     0.0000    0.000    0.000   1   0.97339   38.956     0.0000  1    1.06000  0.94000
  85  2      0.0000     0.0000    0.000    0.000   1   0.98500   40.902     0.0000  1    1.06000  0.94000
  86  1      0.0000     0.0000    0.000    0.000   1   0.99229   40.059     0.0000  1    1.06000  0.94000
  87  2      0.0000     0.0000    0.000    0.000   1   1.01500   40.160     0.0000  1    1.06000  0.94000
  88  1      0.0000     0.0000    0.000    0.000   1   0.98555   44.956     0.0000  1    1.06000  0.94000
  89  2      0.0000     0.0000    0.000    0.000   1   1.00500   49.837     0.0000  1    1.06000  0.94000
  90  2      0.0000     0.0000    0.000    0.000   1   0.98500   42.652     0.0000  1    1.06000  0.94000
  91  2      0.0000     0.0000    0.000    0.000   1   0.98000   42.539     0.0000  1    1.06000  0.94000
  92  2      0.0000     0.0000    0.000    0.000   1   0.99000   42.961     0.0000  1    1.06000  0.94000
  93  1      0.0000     0.0000    0.000    0.000   1   0.97911   38.429     0.0000  1    1.06000  0.94000
  94  1      0.0000     0.0000    0.000    0.000   1   0.98145   34.983     0.0000  1    1.06000  0.94000
  95  1      0.0000     0.0000    0.000    0.000   1   0.96849   33.744     0.0000  1    1.06000  0.94000
  96  1      0.0000     0.0000    0.000    0.000   1   0.97895   33.370     0.0000  1    1.06000  0.94000
  97  1      0.0000     0.0000    0.000    0.000   1   1.00381   32.819     0.0000  1    1.06000  0.94000
  98  1      0.0000     0.0000    0.000    0.000   1   1.02245   31.739     0.0000  1    1.06000  0.94000
  99  2      0.0000     0.0000    0.000    0.000   1   1.01000   31.692     0.0000  1    1.06000  0.94000
 100  2      0.0000     0.0000    0.000    0.000   1   1.01700   33.117     0.0000  1    1.06000  0.94000
 101  1      0.0000     0.0000    0.000    0.000   1   0.98849   31.222     0.0000  1    1.06000  0.94000
 102  1      0.0000     0.0000    0.000    0.000   1   0.98497   30.887     0.0000  1    1.06000  0.94000
 103  2      0.0000     0.0000    0.000    0.000   1   1.01000   29.671     0.0000  1    1.06000  0.94000
 104  2      0.0000     0.0000    0.000    0.000   1   0.97100   24.707     0.0000  1    1.06000  0.94000
 105  2      0.0000     0.0000    0.000    0.000   1   0.96500   22.724     0.0000  1    1.06000  0.94000
 106  1      0.0000     0.0000    0.000    0.000   1   0.95890   22.827     0.0000  1    1.06000  0.94000
 107  2      0.0000     0.0000    0.000    0.000   1   0.95200   19.505     0.0000  1    1.06000  0.94000
 108  1      0.0000     0.0000    0.000    0.000   1   0.96188   18.223     0.0000  1    1.06000  0.94000
 109  1      0.0000     0.0000    0.000    0.000   1   0.96269   16.420     0.0000  1    1.06000  0.94000
 110  2      0.0000     0.0000    0.000    0.000   1   0.97300   12.076     0.0000  1    1.06000  0.94000
 111  2      0.0000     0.0000    0.000    0.000   1   0.98000   12.988     0.0000  1    1.06000  0.94000
 112  2      0.0000     0.0000    0.000    0.000   1   0.97500   10.359     0.0000  1    1.06000  0.94000
 113  2      0.0000     0.0000    0.000    0.000   1   0.99300   20.940     0.0000  1    1.06000  0.94000
 114  1      0.0000     0.0000    0.000    0.000   1   0.95952   21.132     0.0000  1    1.06000  0.94000
 115  1      0.0000     0.0000    0.000    0.000   1   0.95941   21.115     0.0000  1    1.06000  0.94000
 116  2      0.0000     0.0000    0.000    0.000   1   1.00500   30.606     0.0000  1    1.06000  0.94000
 117  1      0.0000     0.0000    0.000    0.000   1   0.98240   17.121     0.0000  1    1.06000  0.94000
 118  1      0.0000     0.0000    0.000    0.000   1   0.94817   21.063     0.0000  1    1.06000  0.92000
];

%bus      Pg         Qg        Qmax       Qmin    Vsp        base    status     Pmax        Pmin
gen = [
   1     0.0000     3.4787   100.0000    -5.0000  0.95500   100.0000    1      100.0000     0.0000
   4     0.0000   -25.5669   300.0000  -300.0000  0.99800   100.0000    1      100.0000     0.0000
   6    57.2000    24.2000   100.0000   -13.0000  0.99000   100.0000    1      100.0000     0.0000
   8     0.0000  -135.3677   300.0000  -300.0000  1.01500   100.0000    1      100.0000     0.0000
  10   525.1455  -149.4995   200.0000  -200.0000  1.05000   100.0000    1      600.0000     0.0000
  12    99.1942   137.2208   200.0000   -35.0000  0.99000   100.0000    1      185.0000     0.0000
  15     0.0000    18.7138   200.0000  -100.0000  0.97000   100.0000    1      100.0000     0.0000
  18    -0.0000    34.6583   100.0000   -16.0000  0.97300   100.0000    1      100.0000     0.0000
  19     0.0000    -9.0342   100.0000  -100.0000  0.96200   100.0000    1      100.0000     0.0000
  24     0.0000    -4.8667   300.0000  -300.0000  0.99200   100.0000    1      100.0000     0.0000
  25   256.7378    51.4132   200.0000   -47.0000  1.05000   100.0000    1      320.0000     0.0000
  26   366.4349    17.8505  1000.0000 -1000.0000  1.01500   100.0000    1      414.0000     0.0000
  27     0.0000    26.6492   300.0000  -300.0000  0.96800   100.0000    1      100.0000     0.0000
  31     8.1689    25.6051   300.0000  -300.0000  0.96700   100.0000    1      107.0000     0.0000
  32     0.0000   -10.2927   100.0000  -100.0000  0.96300   100.0000    1      100.0000     0.0000
  34     0.0000   -11.2730   200.0000  -100.0000  0.98400   100.0000    1      100.0000     0.0000
  36     0.0000    12.5295   100.0000  -100.0000  0.98000   100.0000    1      100.0000     0.0000
  40     0.0000    41.2743   300.0000  -300.0000  0.97000   100.0000    1      100.0000     0.0000
  42     0.0000    44.0330   300.0000  -300.0000  0.98500   100.0000    1      100.0000     0.0000
  46    22.1728    -4.5653   100.0000  -100.0000  1.00500   100.0000    1      119.0000     0.0000
  49   238.0660   163.1219   210.0000   -85.0000  1.02500   100.0000    1      304.0000     0.0000
  54    56.0155    29.3325   300.0000  -300.0000  0.95500   100.0000    1      148.0000     0.0000
  55     0.0000     8.8947   100.0000    -8.0000  0.95200   100.0000    1      100.0000     0.0000
  56     0.0000     8.1250   100.0000  -100.0000  0.95400   100.0000    1      100.0000     0.0000
  59   180.8835   187.3468   200.0000   -60.0000  0.98500   100.0000    1      255.0000     0.0000
  61   186.7184   -88.1058   300.0000  -100.0000  0.99500   100.0000    1      260.0000     0.0000
  62    -0.0000     9.0291   100.0000  -100.0000  0.99800   100.0000    1      100.0000     0.0000
  65   456.2931    33.4864   200.0000  -100.0000  1.00500   100.0000    1      500.0000     0.0000
  66   457.4601   -13.9306   200.0000  -100.0000  1.05000   100.0000    1      500.0000     0.0000
  69   293.8167   -94.4972   300.0000  -300.0000  1.03500   100.0000    1      805.2000     0.0000
  70     0.0000     4.2301   100.0000  -100.0000  0.98400   100.0000    1      100.0000     0.0000
  72     0.0000   -11.1256   100.0000  -100.0000  0.98000   100.0000    1      100.0000     0.0000
  73     0.0000    12.7390   100.0000  -100.0000  0.99100   100.0000    1      100.0000     0.0000
  74     0.0000     0.5131   100.0000  -100.0000  0.95800   100.0000    1      100.0000     0.0000
  76    -0.0000    13.0644   100.0000    -8.0000  0.94300   100.0000    1      100.0000     0.0000
  77     0.0000   111.3304   100.0000  -100.0000  1.00600   100.0000    1      100.0000     0.0000
  80   556.6542    66.7586   280.0000  -165.0000  1.04000   100.0000    1      600.0000     0.0000
  85     0.0000     6.1551   100.0000  -100.0000  0.98500   100.0000    1      100.0000     0.0000
  87     4.6680    17.0076  1000.0000  -100.0000  1.01500   100.0000    1      104.0000     0.0000
  89   708.3629   -12.2247   300.0000  -210.0000  1.00500   100.0000    1      800.0000     0.0000
  90    -0.0000    69.9175   300.0000  -300.0000  0.98500   100.0000    1      100.0000     0.0000
  91    -0.0000   -12.7945   100.0000  -100.0000  0.98000   100.0000    1      100.0000     0.0000
  92     0.0000     8.0456   100.0000  -100.0000  0.99000   100.0000    1      100.0000     0.0000
  99     0.0000   -16.5458   100.0000  -100.0000  1.01000   100.0000    1      100.0000     0.0000
 100   294.0815   119.2775   200.0000   -50.0000  1.01700   100.0000    1      352.0000     0.0000
 103    46.6796    52.5880   100.0000   -15.0000  1.01000   100.0000    1      140.0000     0.0000
 104     0.0000    10.9279   100.0000  -100.0000  0.97100   100.0000    1      100.0000     0.0000
 105    -0.0000    -4.5239   100.0000  -100.0000  0.96500   100.0000    1      100.0000     0.0000
 107     0.0000    10.1459   200.0000  -200.0000  0.95200   100.0000    1      100.0000     0.0000
 110     0.0000    23.2400   100.0000  -100.0000  0.97300   100.0000    1      100.0000     0.0000
 111    42.0116     4.3293  1000.0000  -100.0000  0.98000   100.0000    1      136.0000     0.0000
 112    -0.0000    44.6984  1000.0000  -100.0000  0.97500   100.0000    1      100.0000     0.0000
 113     0.0000     7.1349   200.0000  -100.0000  0.99300   100.0000    1      100.0000     0.0000
 116     0.0000    57.0266  1000.0000 -1000.0000  1.00500   100.0000    1      100.0000     0.0000
];

%fbus tbus     r       x        b       ratea    rateb     ratec   ratio     angle   status
branch = [
   1    2   0.03030  0.09990  0.02540    60.0000    66.0000     90.0000  0.00000    0.000     1
   1    3   0.01290  0.04240  0.01082    90.0000    99.0000    135.0000  0.00000    0.000     1
   4    5   0.00176  0.00798  0.00210   160.0000   176.0000    240.0000  0.00000    0.000     1
   3    5   0.02410  0.10800  0.02840   100.0000   110.0000    150.0000  0.00000    0.000     1
   5    6   0.01190  0.05400  0.01426   130.0000   143.0000    195.0000  0.00000    0.000     1
   6    7   0.00459  0.02080  0.00550    80.0000    88.0000    120.0000  0.00000    0.000     1
   8    9   0.00244  0.03050  1.16200   520.0000   572.0000    780.0000  0.00000    0.000     1
   8    5   0.00000  0.02670  0.00000   500.0000   550.0000    750.0000  0.98500    0.000     1
   9   10   0.00258  0.03220  1.23000   510.0000   561.0000    765.0000  0.00000    0.000     1
   4   11   0.02090  0.06880  0.01748   120.0000   132.0000    180.0000  0.00000    0.000     1
   5   11   0.02030  0.06820  0.01738   150.0000   165.0000    225.0000  0.00000    0.000     1
  11   12   0.00595  0.01960  0.00502   130.0000   143.0000    195.0000  0.00000    0.000     1
   2   12   0.01870  0.06160  0.01572    90.0000    99.0000    135.0000  0.00000    0.000     1
   3   12   0.04840  0.16000  0.04060    60.0000    66.0000     90.0000  0.00000    0.000     1
   7   12   0.00862  0.03400  0.00874    90.0000    99.0000    135.0000  0.00000    0.000     1
  11   13   0.02225  0.07310  0.01876   100.0000   110.0000    150.0000  0.00000    0.000     1
  12   14   0.02150  0.07070  0.01816   120.0000   132.0000    180.0000  0.00000    0.000     1
  13   15   0.07440  0.24440  0.06268   120.0000   132.0000    180.0000  0.00000    0.000     1
  14   15   0.05950  0.19500  0.05020   140.0000   154.0000    210.0000  0.00000    0.000     1
  12   16   0.02120  0.08340  0.02140   170.0000   187.0000    255.0000  0.00000    0.000     1
  15   17   0.01320  0.04370  0.04440   270.0000   297.0000    405.0000  0.00000    0.000     1
  16   17   0.04540  0.18010  0.04660   190.0000   209.0000    285.0000  0.00000    0.000     1
  17   18   0.01230  0.05050  0.01298   150.0000   165.0000    225.0000  0.00000    0.000     1
  18   19   0.01119  0.04930  0.01142    90.0000    99.0000    135.0000  0.00000    0.000     1
  19   20   0.02520  0.11700  0.02980    70.0000    77.0000    105.0000  0.00000    0.000     1
  15   19   0.01200  0.03940  0.01010    90.0000    99.0000    135.0000  0.00000    0.000     1
  20   21   0.01830  0.08490  0.02160    80.0000    88.0000    120.0000  0.00000    0.000     1
  21   22   0.02090  0.09700  0.02460   100.0000   110.0000    150.0000  0.00000    0.000     1
  22   23   0.03420  0.15900  0.04040   110.0000   121.0000    165.0000  0.00000    0.000     1
  23   24   0.01350  0.04920  0.04980    90.0000    99.0000    135.0000  0.00000    0.000     1
  23   25   0.01560  0.08000  0.08640   350.0000   385.0000    525.0000  0.00000    0.000     1
  26   25   0.00000  0.03820  0.00000   370.0000   407.0000    555.0000  0.96000    0.000     1
  25   27   0.03180  0.16300  0.17640   260.0000   286.0000    390.0000  0.00000    0.000     1
  27   28   0.01913  0.08550  0.02160    80.0000    88.0000    120.0000  0.00000    0.000     1
  28   29   0.02370  0.09430  0.02380    60.0000    66.0000     90.0000  0.00000    0.000     1
  30   17   0.00000  0.03880  0.00000   590.0000   649.0000    885.0000  0.96000    0.000     1
   8   30   0.00431  0.05040  0.51400   500.0000   550.0000    750.0000  0.00000    0.000     1
  26   30   0.00799  0.08600  0.90800   370.0000   407.0000    555.0000  0.00000    0.000     1
  17   31   0.04740  0.15630  0.03990    70.0000    77.0000    105.0000  0.00000    0.000     1
  29   31   0.01080  0.03310  0.00830    50.0000    55.0000     75.0000  0.00000    0.000     1
  23   32   0.03170  0.11530  0.11730   190.0000   209.0000    285.0000  0.00000    0.000     1
  31   32   0.02980  0.09850  0.02510    80.0000    88.0000    120.0000  0.00000    0.000     1
  27   32   0.02290  0.07550  0.01926    80.0000    88.0000    120.0000  0.00000    0.000     1
  15   33   0.03800  0.12440  0.03194   110.0000   121.0000    165.0000  0.00000    0.000     1
  19   34   0.07520  0.24700  0.06320   100.0000   110.0000    150.0000  0.00000    0.000     1
  35   36   0.00224  0.01020  0.00268    90.0000    99.0000    135.0000  0.00000    0.000     1
  35   37   0.01100  0.04970  0.01318   120.0000   132.0000    180.0000  0.00000    0.000     1
  33   37   0.04150  0.14200  0.03660    90.0000    99.0000    135.0000  0.00000    0.000     1
  34   36   0.00871  0.02680  0.00568    80.0000    88.0000    120.0000  0.00000    0.000     1
  34   37   0.00256  0.00940  0.00984   150.0000   165.0000    225.0000  0.00000    0.000     1
  38   37   0.00000  0.03750  0.00000   390.0000   429.0000    585.0000  0.93500    0.000     1
  37   39   0.03210  0.10600  0.02700   110.0000   121.0000    165.0000  0.00000    0.000     1
  37   40   0.05930  0.16800  0.04200   110.0000   121.0000    165.0000  0.00000    0.000     1
  30   38   0.00464  0.05400  0.42200   210.0000   231.0000    315.0000  0.00000    0.000     1
  39   40   0.01840  0.06050  0.01552    80.0000    88.0000    120.0000  0.00000    0.000     1
  40   41   0.01450  0.04870  0.01222    50.0000    55.0000     75.0000  0.00000    0.000     1
  40   42   0.05550  0.18300  0.04660    50.0000    55.0000     75.0000  0.00000    0.000     1
  41   42   0.04100  0.13500  0.03440    60.0000    66.0000     90.0000  0.00000    0.000     1
  43   44   0.06080  0.24540  0.06068    60.0000    66.0000     90.0000  0.00000    0.000     1
  34   43   0.04130  0.16810  0.04226    50.0000    55.0000     75.0000  0.00000    0.000     1
  44   45   0.02240  0.09010  0.02240    80.0000    88.0000    120.0000  0.00000    0.000     1
  45   46   0.04000  0.13560  0.03320    80.0000    88.0000    120.0000  0.00000    0.000     1
  46   47   0.03800  0.12700  0.03160    60.0000    66.0000     90.0000  0.00000    0.000     1
  46   48   0.06010  0.18900  0.04720    50.0000    55.0000     75.0000  0.00000    0.000     1
  47   49   0.01910  0.06250  0.01604    60.0000    66.0000     90.0000  0.00000    0.000     1
  42   49   0.07150  0.32300  0.08600   120.0000   132.0000    180.0000  0.00000    0.000     1
  42   49   0.07150  0.32300  0.08600   120.0000   132.0000    180.0000  0.00000    0.000     1
  45   49   0.06840  0.18600  0.04440    90.0000    99.0000    135.0000  0.00000    0.000     1
  48   49   0.01790  0.05050  0.01258    60.0000    66.0000     90.0000  0.00000    0.000     1
  49   50   0.02670  0.07520  0.01874    80.0000    88.0000    120.0000  0.00000    0.000     1
  49   51   0.04860  0.13700  0.03420   100.0000   110.0000    150.0000  0.00000    0.000     1
  51   52   0.02030  0.05880  0.01396    60.0000    66.0000     90.0000  0.00000    0.000     1
  52   53   0.04050  0.16350  0.04058    50.0000    55.0000     75.0000  0.00000    0.000     1
  53   54   0.02630  0.12200  0.03100    60.0000    66.0000     90.0000  0.00000    0.000     1
  49   54   0.07300  0.28900  0.07380    70.0000    77.0000    105.0000  0.00000    0.000     1
  49   54   0.08690  0.29100  0.07300    70.0000    77.0000    105.0000  0.00000    0.000     1
  54   55   0.01690  0.07070  0.02020    50.0000    55.0000     75.0000  0.00000    0.000     1
  54   56   0.00275  0.00955  0.00732    60.0000    66.0000     90.0000  0.00000    0.000     1
  55   56   0.00488  0.01510  0.00374    60.0000    66.0000     90.0000  0.00000    0.000     1
  56   57   0.03430  0.09660  0.02420    50.0000    55.0000     75.0000  0.00000    0.000     1
  50   57   0.04740  0.13400  0.03320    60.0000    66.0000     90.0000  0.00000    0.000     1
  56   58   0.03430  0.09660  0.02420    50.0000    55.0000     75.0000  0.00000    0.000     1
  51   58   0.02550  0.07190  0.01788    50.0000    55.0000     75.0000  0.00000    0.000     1
  54   59   0.05030  0.22930  0.05980    50.0000    55.0000     75.0000  0.00000    0.000     1
  56   59   0.08250  0.25100  0.05690    50.0000    55.0000     75.0000  0.00000    0.000     1
  56   59   0.08030  0.23900  0.05360    50.0000    55.0000     75.0000  0.00000    0.000     1
  55   59   0.04739  0.21580  0.05646    50.0000    55.0000     75.0000  0.00000    0.000     1
  59   60   0.03170  0.14500  0.03760   110.0000   121.0000    165.0000  0.00000    0.000     1
  59   61   0.03280  0.15000  0.03880   120.0000   132.0000    180.0000  0.00000    0.000     1
  60   61   0.00264  0.01350  0.01456   180.0000   198.0000    270.0000  0.00000    0.000     1
  60   62   0.01230  0.05610  0.01468   100.0000   110.0000    150.0000  0.00000    0.000     1
  61   62   0.00824  0.03760  0.00980   110.0000   121.0000    165.0000  0.00000    0.000     1
  63   59   0.00000  0.03860  0.00000   210.0000   231.0000    315.0000  0.96000    0.000     1
  63   64   0.00172  0.02000  0.21600   210.0000   231.0000    315.0000  0.00000    0.000     1
  64   61   0.00000  0.02680  0.00000   150.0000   165.0000    225.0000  0.98500    0.000     1
  38   65   0.00901  0.09860  1.04600   250.0000   275.0000    375.0000  0.00000    0.000     1
  64   65   0.00269  0.03020  0.38000   230.0000   253.0000    345.0000  0.00000    0.000     1
  49   66   0.01800  0.09190  0.02480   230.0000   253.0000    345.0000  0.00000    0.000     1
  49   66   0.01800  0.09190  0.02480   230.0000   253.0000    345.0000  0.00000    0.000     1
  62   66   0.04820  0.21800  0.05780   100.0000   110.0000    150.0000  0.00000    0.000     1
  62   67   0.02580  0.11700  0.03100    80.0000    88.0000    120.0000  0.00000    0.000     1
  65   66   0.00000  0.03700  0.00000   160.0000   176.0000    240.0000  0.93500    0.000     1
  66   67   0.02240  0.10150  0.02682   110.0000   121.0000    165.0000  0.00000    0.000     1
  65   68   0.00138  0.01600  0.63800   190.0000   209.0000    285.0000  0.00000    0.000     1
  47   69   0.08440  0.27780  0.07092    70.0000    77.0000    105.0000  0.00000    0.000     1
  49   69   0.09850  0.32400  0.08280    60.0000    66.0000     90.0000  0.00000    0.000     1
  68   69   0.00000  0.03700  0.00000   160.0000   176.0000    240.0000  0.93500    0.000     1
  69   70   0.03000  0.12700  0.12200   140.0000   154.0000    210.0000  0.00000    0.000     1
  24   70   0.00221  0.41150  0.10198    50.0000    55.0000     75.0000  0.00000    0.000     1
  70   71   0.00882  0.03550  0.00878    50.0000    55.0000     75.0000  0.00000    0.000     1
  24   72   0.04880  0.19600  0.04880    50.0000    55.0000     75.0000  0.00000    0.000     1
  71   72   0.04460  0.18000  0.04444    50.0000    55.0000     75.0000  0.00000    0.000     1
  71   73   0.00866  0.04540  0.01178    50.0000    55.0000     75.0000  0.00000    0.000     1
  70   74   0.04010  0.13230  0.03368    80.0000    88.0000    120.0000  0.00000    0.000     1
  70   75   0.04280  0.14100  0.03600    50.0000    55.0000     75.0000  0.00000    0.000     1
  69   75   0.04050  0.12200  0.12400   150.0000   165.0000    225.0000  0.00000    0.000     1
  74   75   0.01230  0.04060  0.01034   100.0000   110.0000    150.0000  0.00000    0.000     1
  76   77   0.04440  0.14800  0.03680   120.0000   132.0000    180.0000  0.00000    0.000     1
  69   77   0.03090  0.10100  0.10380    60.0000    66.0000     90.0000  0.00000    0.000     1
  75   77   0.06010  0.19990  0.04978    80.0000    88.0000    120.0000  0.00000    0.000     1
  77   78   0.00376  0.01240  0.01264   130.0000   143.0000    195.0000  0.00000    0.000     1
  78   79   0.00546  0.02440  0.00648    90.0000    99.0000    135.0000  0.00000    0.000     1
  77   80   0.01700  0.04850  0.04720   170.0000   187.0000    255.0000  0.00000    0.000     1
  77   80   0.02940  0.10500  0.02280   100.0000   110.0000    150.0000  0.00000    0.000     1
  79   80   0.01560  0.07040  0.01870   140.0000   154.0000    210.0000  0.00000    0.000     1
  68   81   0.00175  0.02020  0.80800   140.0000   154.0000    210.0000  0.00000    0.000     1
  81   80   0.00000  0.03700  0.00000   140.0000   154.0000    210.0000  0.93500    0.000     1
  77   82   0.02980  0.08530  0.08174    70.0000    77.0000    105.0000  0.00000    0.000     1
  82   83   0.01120  0.03665  0.03796   130.0000   143.0000    195.0000  0.00000    0.000     1
  83   84   0.06250  0.13200  0.02580    80.0000    88.0000    120.0000  0.00000    0.000     1
  83   85   0.04300  0.14800  0.03480   100.0000   110.0000    150.0000  0.00000    0.000     1
  84   85   0.03020  0.06410  0.01234    90.0000    99.0000    135.0000  0.00000    0.000     1
  85   86   0.03500  0.12300  0.02760    50.0000    55.0000     75.0000  0.00000    0.000     1
  86   87   0.02828  0.20740  0.04450    50.0000    55.0000     75.0000  0.00000    0.000     1
  85   88   0.02000  0.10200  0.02760   130.0000   143.0000    195.0000  0.00000    0.000     1
  85   89   0.02390  0.17300  0.04700   170.0000   187.0000    255.0000  0.00000    0.000     1
  88   89   0.01390  0.07120  0.01934   180.0000   198.0000    270.0000  0.00000    0.000     1
  89   90   0.05180  0.18800  0.05280   140.0000   154.0000    210.0000  0.00000    0.000     1
  89   90   0.02380  0.09970  0.10600   180.0000   198.0000    270.0000  0.00000    0.000     1
  90   91   0.02540  0.08360  0.02140    70.0000    77.0000    105.0000  0.00000    0.000     1
  89   92   0.00990  0.05050  0.05480   300.0000   330.0000    450.0000  0.00000    0.000     1
  89   92   0.03930  0.15810  0.04140   200.0000   220.0000    300.0000  0.00000    0.000     1
  91   92   0.03870  0.12720  0.03268    70.0000    77.0000    105.0000  0.00000    0.000     1
  92   93   0.02580  0.08480  0.02180   110.0000   121.0000    165.0000  0.00000    0.000     1
  92   94   0.04810  0.15800  0.04060   100.0000   110.0000    150.0000  0.00000    0.000     1
  93   94   0.02230  0.07320  0.01876   100.0000   110.0000    150.0000  0.00000    0.000     1
  94   95   0.01320  0.04340  0.01110    80.0000    88.0000    120.0000  0.00000    0.000     1
  80   96   0.03560  0.18200  0.04940    50.0000    55.0000     75.0000  0.00000    0.000     1
  82   96   0.01620  0.05300  0.05440    70.0000    77.0000    105.0000  0.00000    0.000     1
  94   96   0.02690  0.08690  0.02300    80.0000    88.0000    120.0000  0.00000    0.000     1
  80   97   0.01830  0.09340  0.02540    50.0000    55.0000     75.0000  0.00000    0.000     1
  80   98   0.02380  0.10800  0.02860    50.0000    55.0000     75.0000  0.00000    0.000     1
  80   99   0.04540  0.20600  0.05460    50.0000    55.0000     75.0000  0.00000    0.000     1
  92  100   0.06480  0.29500  0.04720    60.0000    66.0000     90.0000  0.00000    0.000     1
  94  100   0.01780  0.05800  0.06040    80.0000    88.0000    120.0000  0.00000    0.000     1
  95   96   0.01710  0.05470  0.01474    70.0000    77.0000    105.0000  0.00000    0.000     1
  96   97   0.01730  0.08850  0.02400    50.0000    55.0000     75.0000  0.00000    0.000     1
  98  100   0.03970  0.17900  0.04760    50.0000    55.0000     75.0000  0.00000    0.000     1
  99  100   0.01800  0.08130  0.02160    50.0000    55.0000     75.0000  0.00000    0.000     1
 100  101   0.02770  0.12620  0.03280    50.0000    55.0000     75.0000  0.00000    0.000     1
  92  102   0.01230  0.05590  0.01464    70.0000    77.0000    105.0000  0.00000    0.000     1
 101  102   0.02460  0.11200  0.02940    70.0000    77.0000    105.0000  0.00000    0.000     1
 100  103   0.01600  0.05250  0.05360   180.0000   198.0000    270.0000  0.00000    0.000     1
 100  104   0.04510  0.20400  0.05410   140.0000   154.0000    210.0000  0.00000    0.000     1
 103  104   0.04660  0.15840  0.04070    70.0000    77.0000    105.0000  0.00000    0.000     1
 103  105   0.05350  0.16250  0.04080    80.0000    88.0000    120.0000  0.00000    0.000     1
 100  106   0.06050  0.22900  0.06200   130.0000   143.0000    195.0000  0.00000    0.000     1
 104  105   0.00994  0.03780  0.00986   100.0000   110.0000    150.0000  0.00000    0.000     1
 105  106   0.01400  0.05470  0.01434    70.0000    77.0000    105.0000  0.00000    0.000     1
 105  107   0.05300  0.18300  0.04720    60.0000    66.0000     90.0000  0.00000    0.000     1
 105  108   0.02610  0.07030  0.01844   110.0000   121.0000    165.0000  0.00000    0.000     1
 106  107   0.05300  0.18300  0.04720    70.0000    77.0000    105.0000  0.00000    0.000     1
 108  109   0.01050  0.02880  0.00760   100.0000   110.0000    150.0000  0.00000    0.000     1
 103  110   0.03906  0.18130  0.04610   100.0000   110.0000    150.0000  0.00000    0.000     1
 109  110   0.02780  0.07620  0.02020   100.0000   110.0000    150.0000  0.00000    0.000     1
 110  111   0.02200  0.07550  0.02000    50.0000    55.0000     75.0000  0.00000    0.000     1
 110  112   0.02470  0.06400  0.06200    90.0000    99.0000    135.0000  0.00000    0.000     1
  17  113   0.00913  0.03010  0.00768    60.0000    66.0000     90.0000  0.00000    0.000     1
  32  113   0.06150  0.20300  0.05180    80.0000    88.0000    120.0000  0.00000    0.000     1
  32  114   0.01350  0.06120  0.01628    60.0000    66.0000     90.0000  0.00000    0.000     1
  27  115   0.01640  0.07410  0.01972    60.0000    66.0000     90.0000  0.00000    0.000     1
 114  115   0.00230  0.01040  0.00276    50.0000    55.0000     75.0000  0.00000    0.000     1
  68  116   0.00034  0.00405  0.16400   220.0000   242.0000    330.0000  0.00000    0.000     1
  12  117   0.03290  0.14000  0.03580    50.0000    55.0000     75.0000  0.00000    0.000     1
  75  118   0.01450  0.04810  0.01198   120.0000   132.0000    180.0000  0.00000    0.000     1
  76  118   0.01640  0.05440  0.01356    90.0000    99.0000    135.0000  0.00000    0.000     1
   8    9   0.00244  0.03050  1.16200   520.0000   572.0000    780.0000  0.00000    0.000     1
   9   10   0.00258  0.03220  1.23000   510.0000   561.0000    765.0000  0.00000    0.000     1
  71   73   0.00866  0.04540  0.01178    50.0000    55.0000     75.0000  0.00000    0.000     1
  85   86   0.03500  0.12300  0.02760    50.0000    55.0000     75.0000  0.00000    0.000     1
  86   87   0.02828  0.20740  0.04450    50.0000    55.0000     75.0000  0.00000    0.000     1
 110  111   0.02200  0.07550  0.02000    50.0000    55.0000     75.0000  0.00000    0.000     1
 110  112   0.02470  0.06400  0.06200    90.0000    99.0000    135.0000  0.00000    0.000     1
  68  116   0.00034  0.00405  0.16400   220.0000   242.0000    330.0000  0.00000    0.000     1
  12  117   0.03290  0.14000  0.03580    50.0000    55.0000     75.0000  0.00000    0.000     1
];

area = [
   1      1
];	

gencost = [
   2     0.0000     0.0000    3    0.010   40.000      0.00
   2     0.0000     0.0000    3    0.010   40.000      0.00
   2     0.0000     0.0000    3    0.010   40.000      0.00
   2     0.0000     0.0000    3    0.010   40.000      0.00
   2     0.0000     0.0000    3    0.022   20.000      0.00
   2     0.0000     0.0000    3    0.118   20.000      0.00
   2     0.0000     0.0000    3    0.010   40.000      0.00
   2     0.0000     0.0000    3    0.010   40.000      0.00
   2     0.0000     0.0000    3    0.010   40.000      0.00
   2     0.0000     0.0000    3    0.010   40.000      0.00
   2     0.0000     0.0000    3    0.045   20.000      0.00
   2     0.0000     0.0000    3    0.032   20.000      0.00
   2     0.0000     0.0000    3    0.010   40.000      0.00
   2     0.0000     0.0000    3    1.429   20.000      0.00
   2     0.0000     0.0000    3    0.010   40.000      0.00
   2     0.0000     0.0000    3    0.010   40.000      0.00
   2     0.0000     0.0000    3    0.010   40.000      0.00
   2     0.0000     0.0000    3    0.010   40.000      0.00
   2     0.0000     0.0000    3    0.010   40.000      0.00
   2     0.0000     0.0000    3    0.526   20.000      0.00
   2     0.0000     0.0000    3    0.049   20.000      0.00
   2     0.0000     0.0000    3    0.208   20.000      0.00
   2     0.0000     0.0000    3    0.010   40.000      0.00
   2     0.0000     0.0000    3    0.010   40.000      0.00
   2     0.0000     0.0000    3    0.065   20.000      0.00
   2     0.0000     0.0000    3    0.062   20.000      0.00
   2     0.0000     0.0000    3    0.010   40.000      0.00
   2     0.0000     0.0000    3    0.026   20.000      0.00
   2     0.0000     0.0000    3    0.026   20.000      0.00
   2     0.0000     0.0000    3    0.019   20.000      0.00
   2     0.0000     0.0000    3    0.010   40.000      0.00
   2     0.0000     0.0000    3    0.010   40.000      0.00
   2     0.0000     0.0000    3    0.010   40.000      0.00
   2     0.0000     0.0000    3    0.010   40.000      0.00
   2     0.0000     0.0000    3    0.010   40.000      0.00
   2     0.0000     0.0000    3    0.010   40.000      0.00
   2     0.0000     0.0000    3    0.021   20.000      0.00
   2     0.0000     0.0000    3    0.010   40.000      0.00
   2     0.0000     0.0000    3    2.500   20.000      0.00
   2     0.0000     0.0000    3    0.016   20.000      0.00
   2     0.0000     0.0000    3    0.010   40.000      0.00
   2     0.0000     0.0000    3    0.010   40.000      0.00
   2     0.0000     0.0000    3    0.010   40.000      0.00
   2     0.0000     0.0000    3    0.010   40.000      0.00
   2     0.0000     0.0000    3    0.040   20.000      0.00
   2     0.0000     0.0000    3    0.250   20.000      0.00
   2     0.0000     0.0000    3    0.010   40.000      0.00
   2     0.0000     0.0000    3    0.010   40.000      0.00
   2     0.0000     0.0000    3    0.010   40.000      0.00
   2     0.0000     0.0000    3    0.010   40.000      0.00
   2     0.0000     0.0000    3    0.278   20.000      0.00
   2     0.0000     0.0000    3    0.010   40.000      0.00
   2     0.0000     0.0000    3    0.010   40.000      0.00
   2     0.0000     0.0000    3    0.010   40.000      0.00
];

load = [
   1     7500    56.1000    29.7000     0.0000     0.0000
   2     7600    22.0000     9.9000     0.0000     0.0000
   3     8600    42.9000    11.0000     0.0000     0.0000
   4     2200    42.9000    13.2000     0.0000     0.0000
   5     4700     0.0000     0.0000     0.0000   -44.0000
   6     6900    57.2000    24.2000     0.0000     0.0000
   7     1300    20.9000     2.2000     0.0000     0.0000
   8     9000    30.8000     0.0000     0.0000     0.0000
  11     8100    77.0000    25.3000     0.0000     0.0000
  12     3100    51.7000    11.0000     0.0000     0.0000
  13     8800    37.4000    17.6000     0.0000     0.0000
  14     3000    15.4000     1.1000     0.0000     0.0000
  15     8400    99.0000    33.0000     0.0000     0.0000
  16     7200    27.5000    11.0000     0.0000     0.0000
  17      400    12.1000     3.3000     0.0000     0.0000
  18     4800    66.0000    37.4000     0.0000     0.0000
  19     2400    49.5000    27.5000     0.0000     0.0000
  20     9000    19.8000     3.3000     0.0000     0.0000
  21     7400    15.4000     8.8000     0.0000     0.0000
  22     7700    11.0000     5.5000     0.0000     0.0000
  23     2200     7.7000     3.3000     0.0000     0.0000
  24     2500    14.3000     0.0000     0.0000     0.0000
  27      400    78.1000    14.3000     0.0000     0.0000
  28     4900    18.7000     7.7000     0.0000     0.0000
  29     5800    26.4000     4.4000     0.0000     0.0000
  31     6900    47.3000    29.7000     0.0000     0.0000
  32     2300    64.9000    25.3000     0.0000     0.0000
  33     7300    25.3000     9.9000     0.0000     0.0000
  34     4500    64.9000    28.6000     0.0000    15.4000
  35     6300    36.3000     9.9000     0.0000     0.0000
  36     7300    34.1000    18.7000     0.0000     0.0000
  37     5100     0.0000     0.0000     0.0000   -27.5000
  39     6500    29.7000    12.1000     0.0000     0.0000
  40      200    72.6000    25.3000     0.0000     0.0000
  41     1500    40.7000    11.0000     0.0000     0.0000
  42     6900   105.6000    25.3000     0.0000     0.0000
  43     2500    19.8000     7.7000     0.0000     0.0000
  44     2000    17.6000     8.8000     0.0000    11.0000
  45     5200    58.3000    24.2000     0.0000    11.0000
  46     9900    30.8000    11.0000     0.0000    11.0000
  47     5000    37.4000     0.0000     0.0000     0.0000
  48     9900    22.0000    12.1000     0.0000    16.5000
  49     4200    95.7000    33.0000     0.0000     0.0000
  50     5000    18.7000     4.4000     0.0000     0.0000
  51     7400    18.7000     8.8000     0.0000     0.0000
  52     2200    19.8000     5.5000     0.0000     0.0000
  53     1900    25.3000    12.1000     0.0000     0.0000
  54     6900   124.3000    35.2000     0.0000     0.0000
  55     5300    69.3000    24.2000     0.0000     0.0000
  56     1700    92.4000    19.8000     0.0000     0.0000
  57     2900    13.2000     3.3000     0.0000     0.0000
  58     4200    13.2000     3.3000     0.0000     0.0000
  59     4200   304.7000   124.3000     0.0000     0.0000
  60     8700    85.8000     3.3000     0.0000     0.0000
  62     8000    84.7000    15.4000     0.0000     0.0000
  66      700    42.9000    19.8000     0.0000     0.0000
  67     5300    30.8000     7.7000     0.0000     0.0000
  70     3700    72.6000    22.0000     0.0000     0.0000
  72     5100    13.2000     0.0000     0.0000     0.0000
  73     9400     6.6000     0.0000     0.0000     0.0000
  74     7600    74.8000    29.7000     0.0000    13.2000
  75     6900    51.7000    12.1000     0.0000     0.0000
  76     6200    74.8000    39.6000     0.0000     0.0000
  77     1900    67.1000    30.8000     0.0000     0.0000
  78      900    78.1000    28.6000     0.0000     0.0000
  79      500    42.9000    35.2000     0.0000    22.0000
  80     8500   143.0000    28.6000     0.0000     0.0000
  82     8200    59.4000    29.7000     0.0000    22.0000
  83     7400    22.0000    11.0000     0.0000    11.0000
  84      300    12.1000     7.7000     0.0000     0.0000
  85     2400    26.4000    16.5000     0.0000     0.0000
  86      600    23.1000    11.0000     0.0000     0.0000
  88     5600    52.8000    11.0000     0.0000     0.0000
  90     8800   179.3000    46.2000     0.0000     0.0000
  91      500    11.0000     0.0000     0.0000     0.0000
  92     1500    71.5000    11.0000     0.0000     0.0000
  93     5100    13.2000     7.7000     0.0000     0.0000
  94     6500    33.0000    17.6000     0.0000     0.0000
  95     2600    46.2000    34.1000     0.0000     0.0000
  96     3600    41.8000    16.5000     0.0000     0.0000
  97     1700    16.5000     9.9000     0.0000     0.0000
  98     3400    37.4000     8.8000     0.0000     0.0000
  99     1900    46.2000     0.0000     0.0000     0.0000
 100     1500    40.7000    19.8000     0.0000     0.0000
 101     3700    24.2000    16.5000     0.0000     0.0000
 102      800     5.5000     3.3000     0.0000     0.0000
 103     1900    25.3000    17.6000     0.0000     0.0000
 104     1300    41.8000    27.5000     0.0000     0.0000
 105      200    34.1000    28.6000     0.0000    22.0000
 106     1500    47.3000    17.6000     0.0000     0.0000
 107     2500    55.0000    13.2000     0.0000     6.6000
 108     4300     2.2000     1.1000     0.0000     0.0000
 109     2200     8.8000     3.3000     0.0000     0.0000
 110    10000    42.9000    33.0000     0.0000     6.6000
 112     3600    74.8000    14.3000     0.0000     0.0000
 113     2100     6.6000     0.0000     0.0000     0.0000
 114     4400     8.8000     3.3000     0.0000     0.0000
 115     6200    24.2000     7.7000     0.0000     0.0000
 116      800   202.4000     0.0000     0.0000     0.0000
 117     3500    22.0000     8.8000     0.0000     0.0000
 118     3700    36.3000    16.5000     0.0000     0.0000
];
load(:,7) = 1;

return;	
